[General]
network = Throughput
sim-time-limit = 1s
record-eventlog = true

*.*Host.networkLayer.arpType = "GlobalARP"
**.throughput.result-recording-modes = mean 

*.*Host.wlan[*].mgmtType = "Ieee80211MgmtAdhoc"

*.*Host.wlan[*].opMode = "g(erp)"

*.*Host.wlan[*].bitrate = ${bitrate = 6,9,12,18,24,36,48,54}Mbps

*.*Host.wlan[*].radio.separateReceptionParts = true
*.*Host.wlan[*].radio.separateTransmissionParts = true

*.sourceHost.numApps = 1
*.sourceHost.app[0].typename = "UDPBasicApp"
*.sourceHost.app[*].destAddresses = "destinationHost"
*.sourceHost.app[*].destPort = 5000
*.sourceHost.app[*].messageLength = 1000byte
*.sourceHost.app[*].packetName = "UDPData-"
*.sourceHost.app[*].startTime = 0s
*.sourceHost.app[*].sendInterval = 0.1ms

*.destinationHost.numApps = 1
*.destinationHost.app[0].typename = "UDPSink"
*.destinationHost.app[*].localPort = 5000